* Copyright 2022 GlobalFoundries PDK Authors
*
* Licensed under the Apache License, Version 2.0 (the "License");
* you may not use this file except in compliance with the License.
* You may obtain a copy of the License at
*
*     http://www.apache.org/licenses/LICENSE-2.0
*
* Unless required by applicable law or agreed to in writing, software
* distributed under the License is distributed on an "AS IS" BASIS,
* WITHOUT WARRANTIES OR CONDITIONS OF ANY KIND, either express or implied.
* See the License for the specific language governing permissions and
* limitations under the License.

**************************************
* Revision: 1.0
**************************************

*.SCALE METER

.SUBCKT M1_PSUB_I08
** N=1781 EP=0 IP=0 FDC=0
.ENDS
***************************************
.SUBCKT nfet_06v0_I13 1 2 3 4
** N=4 EP=4 IP=0 FDC=1
X0 2 3 1 4 nfet_06v0 L=6e-07 W=6.81e-06 AD=2.9964e-12 AS=2.9964e-12 PD=1.45e-05 PS=1.45e-05 NRD=0.0646109 NRS=0.0646109 m=1 nf=1   
.ENDS
***************************************
.SUBCKT nfet_06v0_I01
** N=3 EP=0 IP=0 FDC=0
*.SEEDPROM
.ENDS
***************************************
.SUBCKT pfet_06v0_I01 1 2 3 4
** N=4 EP=4 IP=0 FDC=1
X0 2 3 1 4 pfet_06v0 L=6e-07 W=6.81e-06 AD=2.9964e-12 AS=2.9964e-12 PD=1.45e-05 PS=1.45e-05 NRD=0.0646109 NRS=0.0646109 m=1 nf=1   
.ENDS
***************************************
.SUBCKT 018SRAM_cell1_dummy_R
** N=8 EP=0 IP=0 FDC=0
*.SEEDPROM
.ENDS
***************************************
.SUBCKT ICV_1 3 4 7 8 9 10
** N=12 EP=6 IP=16 FDC=4
*.SEEDPROM
X0 4 4 7 4 pfet_06v0 L=6e-07 W=6e-07 AD=8.52e-13 AS=2.7e-13 PD=5.32e-06 PS=2.1e-06 NRD=2.36667 NRS=0.75 m=1 nf=1   
X1 4 4 9 4 pfet_06v0 L=6e-07 W=6e-07 AD=8.52e-13 AS=2.7e-13 PD=5.32e-06 PS=2.1e-06 NRD=2.36667 NRS=0.75 m=1 nf=1   
X2 8 3 4 4 pfet_06v0 L=6e-07 W=6e-07 AD=2.7e-13 AS=8.52e-13 PD=2.1e-06 PS=5.32e-06 NRD=0.75 NRS=2.36667 m=1 nf=1   
X3 10 3 4 4 pfet_06v0 L=6e-07 W=6e-07 AD=2.7e-13 AS=8.52e-13 PD=2.1e-06 PS=5.32e-06 NRD=0.75 NRS=2.36667 m=1 nf=1   
.ENDS
***************************************
.SUBCKT ICV_2 1 2 3 4 10 12 14 15
** N=19 EP=8 IP=24 FDC=16
*.SEEDPROM
X0 1 3 16 3 nfet_06v0 L=7.7e-07 W=6e-07 AD=-2.739e-13 AS=1.416e-13 PD=-1.70545e-06 PS=8.14545e-07 NRD=-0.760833 NRS=0.393333 m=1 nf=1   
X1 18 3 1 3 nfet_06v0 L=7.7e-07 W=6e-07 AD=1.416e-13 AS=-2.739e-13 PD=8.14545e-07 PS=-1.70545e-06 NRD=0.393333 NRS=-0.760833 m=1 nf=1   
X2 3 4 16 3 nfet_06v0 L=6e-07 W=9.5e-07 AD=1.84565e-14 AS=1.18957e-13 PD=-7.88406e-08 PS=9.41159e-07 NRD=0.0204504 NRS=0.131808 m=1 nf=1   
X3 3 4 18 3 nfet_06v0 L=6e-07 W=9.5e-07 AD=1.84565e-14 AS=1.18957e-13 PD=-7.88406e-08 PS=9.41159e-07 NRD=0.0204504 NRS=0.131808 m=1 nf=1   
X4 17 3 3 3 nfet_06v0 L=6e-07 W=9.5e-07 AD=1.18957e-13 AS=1.84565e-14 PD=9.41159e-07 PS=-7.88406e-08 NRD=0.131808 NRS=0.0204504 m=1 nf=1   
X5 19 3 3 3 nfet_06v0 L=6e-07 W=9.5e-07 AD=1.18957e-13 AS=1.84565e-14 PD=9.41159e-07 PS=-7.88406e-08 NRD=0.131808 NRS=0.0204504 m=1 nf=1   
X6 2 3 17 3 nfet_06v0 L=7.7e-07 W=6e-07 AD=-2.739e-13 AS=1.416e-13 PD=-1.70545e-06 PS=8.14545e-07 NRD=-0.760833 NRS=0.393333 m=1 nf=1   
X7 19 3 2 3 nfet_06v0 L=7.7e-07 W=6e-07 AD=1.416e-13 AS=-2.739e-13 PD=8.14545e-07 PS=-1.70545e-06 NRD=0.393333 NRS=-0.760833 m=1 nf=1   
X8 3 4 10 12 16 17 ICV_1   
X9 3 4 18 19 14 15 ICV_1   
.ENDS
***************************************
.SUBCKT 018SRAM_strap1_bndry
** N=8 EP=0 IP=0 FDC=0
.ENDS
***************************************
.SUBCKT strapx2b_bndry
** N=10 EP=0 IP=12 FDC=0
.ENDS
***************************************
.SUBCKT dcap_103_novia
** N=2 EP=0 IP=0 FDC=0
*.SEEDPROM
.ENDS
***************************************
.SUBCKT 018SRAM_cell1
** N=8 EP=0 IP=0 FDC=0
*.SEEDPROM
.ENDS
***************************************
.SUBCKT 018SRAM_cell1_2x 1 2 3 5 6 7 8 9 10
** N=12 EP=9 IP=16 FDC=8
*.SEEDPROM
X0 1 5 7 3 nfet_06v0 L=7.7e-07 W=6e-07 AD=-2.739e-13 AS=1.416e-13 PD=-1.70545e-06 PS=8.14545e-07 NRD=-0.760833 NRS=0.393333 m=1 nf=1   
X1 9 6 1 3 nfet_06v0 L=7.7e-07 W=6e-07 AD=1.416e-13 AS=-2.739e-13 PD=8.14545e-07 PS=-1.70545e-06 NRD=0.393333 NRS=-0.760833 m=1 nf=1   
X2 3 8 7 3 nfet_06v0 L=6e-07 W=9.5e-07 AD=1.84565e-14 AS=1.18957e-13 PD=-7.88406e-08 PS=9.41159e-07 NRD=0.0204504 NRS=0.131808 m=1 nf=1   
X3 3 10 9 3 nfet_06v0 L=6e-07 W=9.5e-07 AD=1.84565e-14 AS=1.18957e-13 PD=-7.88406e-08 PS=9.41159e-07 NRD=0.0204504 NRS=0.131808 m=1 nf=1   
X4 8 7 3 3 nfet_06v0 L=6e-07 W=9.5e-07 AD=1.18957e-13 AS=1.84565e-14 PD=9.41159e-07 PS=-7.88406e-08 NRD=0.131808 NRS=0.0204504 m=1 nf=1   
X5 10 9 3 3 nfet_06v0 L=6e-07 W=9.5e-07 AD=1.18957e-13 AS=1.84565e-14 PD=9.41159e-07 PS=-7.88406e-08 NRD=0.131808 NRS=0.0204504 m=1 nf=1   
X6 2 5 8 3 nfet_06v0 L=7.7e-07 W=6e-07 AD=-2.739e-13 AS=1.416e-13 PD=-1.70545e-06 PS=8.14545e-07 NRD=-0.760833 NRS=0.393333 m=1 nf=1   
X7 10 6 2 3 nfet_06v0 L=7.7e-07 W=6e-07 AD=1.416e-13 AS=-2.739e-13 PD=8.14545e-07 PS=-1.70545e-06 NRD=0.393333 NRS=-0.760833 m=1 nf=1   
.ENDS
***************************************
.SUBCKT ICV_3 2 3 4 5 6 7 8 9 10 11 12 13 14 15 16
** N=16 EP=15 IP=24 FDC=16
*.SEEDPROM
X0 5 6 2 3 4 9 11 10 12 018SRAM_cell1_2x   
X1 7 8 2 3 4 13 15 14 16 018SRAM_cell1_2x   
.ENDS
***************************************
.SUBCKT ICV_4 1 2 3 4 5 6 7 8 9 10 11 12 13 14 15 16 17 18
** N=26 EP=18 IP=32 FDC=40
*.SEEDPROM
X0 1 20 19 1 pfet_06v0 L=6e-07 W=6e-07 AD=8.52e-13 AS=2.7e-13 PD=5.32e-06 PS=2.1e-06 NRD=2.36667 NRS=0.75 m=1 nf=1   
X1 1 24 23 1 pfet_06v0 L=6e-07 W=6e-07 AD=8.52e-13 AS=2.7e-13 PD=5.32e-06 PS=2.1e-06 NRD=2.36667 NRS=0.75 m=1 nf=1   
X2 20 19 1 1 pfet_06v0 L=6e-07 W=6e-07 AD=2.7e-13 AS=8.52e-13 PD=2.1e-06 PS=5.32e-06 NRD=0.75 NRS=2.36667 m=1 nf=1   
X3 24 23 1 1 pfet_06v0 L=6e-07 W=6e-07 AD=2.7e-13 AS=8.52e-13 PD=2.1e-06 PS=5.32e-06 NRD=0.75 NRS=2.36667 m=1 nf=1   
X4 1 22 21 1 pfet_06v0 L=6e-07 W=6e-07 AD=8.52e-13 AS=2.7e-13 PD=5.32e-06 PS=2.1e-06 NRD=2.36667 NRS=0.75 m=1 nf=1   
X5 1 26 25 1 pfet_06v0 L=6e-07 W=6e-07 AD=8.52e-13 AS=2.7e-13 PD=5.32e-06 PS=2.1e-06 NRD=2.36667 NRS=0.75 m=1 nf=1   
X6 22 21 1 1 pfet_06v0 L=6e-07 W=6e-07 AD=2.7e-13 AS=8.52e-13 PD=2.1e-06 PS=5.32e-06 NRD=0.75 NRS=2.36667 m=1 nf=1   
X7 26 25 1 1 pfet_06v0 L=6e-07 W=6e-07 AD=2.7e-13 AS=8.52e-13 PD=2.1e-06 PS=5.32e-06 NRD=0.75 NRS=2.36667 m=1 nf=1   
X8 2 3 4 7 8 9 10 11 19 12 20 13 21 14 22 ICV_3   
X9 2 5 6 7 8 9 10 23 15 24 16 25 17 26 18 ICV_3   
.ENDS
***************************************
.SUBCKT ICV_5 1 2 3 4 5 6 7 8 9 10 11 12 13 14 15 16 17 18 19 20
+ 21 22 23 24 25 26 27 28 29 30
** N=30 EP=30 IP=36 FDC=80
*.SEEDPROM
X0 1 2 3 4 5 6 7 8 9 10 15 16 17 18 19 20 21 22 ICV_4   
X1 1 2 3 4 5 6 11 12 13 14 23 24 25 26 27 28 29 30 ICV_4   
.ENDS
***************************************
.SUBCKT ICV_6 1 2 3 4 5 6 7 8 9 10 11 12 13 14 15 16 17 18 19 20
+ 21 22 23 24 25 26 27 28 29 30 31 32 33 34
** N=50 EP=34 IP=60 FDC=176
*.SEEDPROM
X0 1 36 35 1 pfet_06v0 L=6e-07 W=6e-07 AD=8.52e-13 AS=2.7e-13 PD=5.32e-06 PS=2.1e-06 NRD=2.36667 NRS=0.75 m=1 nf=1   
X1 1 44 43 1 pfet_06v0 L=6e-07 W=6e-07 AD=8.52e-13 AS=2.7e-13 PD=5.32e-06 PS=2.1e-06 NRD=2.36667 NRS=0.75 m=1 nf=1   
X2 36 35 1 1 pfet_06v0 L=6e-07 W=6e-07 AD=2.7e-13 AS=8.52e-13 PD=2.1e-06 PS=5.32e-06 NRD=0.75 NRS=2.36667 m=1 nf=1   
X3 44 43 1 1 pfet_06v0 L=6e-07 W=6e-07 AD=2.7e-13 AS=8.52e-13 PD=2.1e-06 PS=5.32e-06 NRD=0.75 NRS=2.36667 m=1 nf=1   
X4 1 38 37 1 pfet_06v0 L=6e-07 W=6e-07 AD=8.52e-13 AS=2.7e-13 PD=5.32e-06 PS=2.1e-06 NRD=2.36667 NRS=0.75 m=1 nf=1   
X5 1 46 45 1 pfet_06v0 L=6e-07 W=6e-07 AD=8.52e-13 AS=2.7e-13 PD=5.32e-06 PS=2.1e-06 NRD=2.36667 NRS=0.75 m=1 nf=1   
X6 38 37 1 1 pfet_06v0 L=6e-07 W=6e-07 AD=2.7e-13 AS=8.52e-13 PD=2.1e-06 PS=5.32e-06 NRD=0.75 NRS=2.36667 m=1 nf=1   
X7 46 45 1 1 pfet_06v0 L=6e-07 W=6e-07 AD=2.7e-13 AS=8.52e-13 PD=2.1e-06 PS=5.32e-06 NRD=0.75 NRS=2.36667 m=1 nf=1   
X8 1 40 39 1 pfet_06v0 L=6e-07 W=6e-07 AD=8.52e-13 AS=2.7e-13 PD=5.32e-06 PS=2.1e-06 NRD=2.36667 NRS=0.75 m=1 nf=1   
X9 1 48 47 1 pfet_06v0 L=6e-07 W=6e-07 AD=8.52e-13 AS=2.7e-13 PD=5.32e-06 PS=2.1e-06 NRD=2.36667 NRS=0.75 m=1 nf=1   
X10 40 39 1 1 pfet_06v0 L=6e-07 W=6e-07 AD=2.7e-13 AS=8.52e-13 PD=2.1e-06 PS=5.32e-06 NRD=0.75 NRS=2.36667 m=1 nf=1   
X11 48 47 1 1 pfet_06v0 L=6e-07 W=6e-07 AD=2.7e-13 AS=8.52e-13 PD=2.1e-06 PS=5.32e-06 NRD=0.75 NRS=2.36667 m=1 nf=1   
X12 1 42 41 1 pfet_06v0 L=6e-07 W=6e-07 AD=8.52e-13 AS=2.7e-13 PD=5.32e-06 PS=2.1e-06 NRD=2.36667 NRS=0.75 m=1 nf=1   
X13 1 50 49 1 pfet_06v0 L=6e-07 W=6e-07 AD=8.52e-13 AS=2.7e-13 PD=5.32e-06 PS=2.1e-06 NRD=2.36667 NRS=0.75 m=1 nf=1   
X14 42 41 1 1 pfet_06v0 L=6e-07 W=6e-07 AD=2.7e-13 AS=8.52e-13 PD=2.1e-06 PS=5.32e-06 NRD=0.75 NRS=2.36667 m=1 nf=1   
X15 50 49 1 1 pfet_06v0 L=6e-07 W=6e-07 AD=2.7e-13 AS=8.52e-13 PD=2.1e-06 PS=5.32e-06 NRD=0.75 NRS=2.36667 m=1 nf=1   
X16 1 2 3 4 5 6 11 12 13 14 15 16 17 18 19 20 21 22 35 36
+ 37 38 23 24 25 26 39 40 41 42
+ ICV_5   
X17 1 2 7 8 9 10 11 12 13 14 15 16 17 18 43 44 45 46 27 28
+ 29 30 47 48 49 50 31 32 33 34
+ ICV_5   
.ENDS
***************************************
.SUBCKT 018SRAM_cell1_dummy 1 2 3 4 5 7
** N=9 EP=6 IP=0 FDC=4
*.SEEDPROM
X0 1 7 2 3 nfet_06v0 L=7.7e-07 W=6e-07 AD=2.81613e-13 AS=2.82e-13 PD=1.84258e-06 PS=2.14e-06 NRD=0.782258 NRS=0.783333 m=1 nf=1   
X1 3 5 1 3 nfet_06v0 L=6e-07 W=9.5e-07 AD=1.84565e-14 AS=1.18957e-13 PD=-7.88406e-08 PS=9.41159e-07 NRD=0.0204504 NRS=0.131808 m=1 nf=1   
X2 5 1 3 3 nfet_06v0 L=6e-07 W=9.5e-07 AD=1.18957e-13 AS=1.84565e-14 PD=9.41159e-07 PS=-7.88406e-08 NRD=0.131808 NRS=0.0204504 m=1 nf=1   
X3 5 7 4 3 nfet_06v0 L=7.7e-07 W=6e-07 AD=2.81613e-13 AS=2.82e-13 PD=1.84258e-06 PS=2.14e-06 NRD=0.782258 NRS=0.783333 m=1 nf=1   
.ENDS
***************************************
.SUBCKT ICV_7 1 3 4 5 6 7 8 9 10 11
** N=15 EP=10 IP=18 FDC=8
*.SEEDPROM
X0 5 4 1 6 7 3 018SRAM_cell1_dummy   
X1 9 8 1 10 11 3 018SRAM_cell1_dummy   
.ENDS
***************************************
.SUBCKT ICV_8 1 3 4 5 6 7 8 9 10 11 12 13 14 15 16 17 18 19
** N=27 EP=18 IP=30 FDC=16
*.SEEDPROM
X0 1 3 4 5 6 7 8 9 10 11 ICV_7   
X1 1 3 12 13 14 15 16 17 18 19 ICV_7   
.ENDS
***************************************
.SUBCKT ICV_9
** N=2 EP=0 IP=4 FDC=0
*.SEEDPROM
.ENDS
***************************************
.SUBCKT ICV_10
** N=2 EP=0 IP=4 FDC=0
*.SEEDPROM
.ENDS
***************************************
.SUBCKT ICV_11
** N=2 EP=0 IP=4 FDC=0
*.SEEDPROM
.ENDS
***************************************
.SUBCKT 018SRAM_strap1
** N=8 EP=0 IP=0 FDC=0
.ENDS
***************************************
.SUBCKT 018SRAM_strap1_2x
** N=10 EP=0 IP=12 FDC=0
.ENDS
***************************************
.SUBCKT ICV_12
** N=15 EP=0 IP=20 FDC=0
.ENDS
***************************************
.SUBCKT ICV_13 4 6 7 8 9 10 11 12 13 14 15 16 17 18 19 20 21 22
** N=30 EP=18 IP=33 FDC=16
*.SEEDPROM
X0 4 6 7 8 9 10 11 12 13 14 15 16 17 18 19 20 21 22 ICV_8   
.ENDS
***************************************
.SUBCKT M1_PSUB$$47122476
** N=5 EP=0 IP=0 FDC=0
.ENDS
***************************************
.SUBCKT pmos_1p2$$46889004 1 2 3 4
** N=4 EP=4 IP=4 FDC=1
X0 1 2 3 4 pfet_06v0_I01   
.ENDS
***************************************
.SUBCKT nmos_1p2$$47119404 1 2 3 4
** N=4 EP=4 IP=4 FDC=1
X0 1 2 3 4 nfet_06v0_I13   
.ENDS
***************************************
.SUBCKT ypass_gate vss 3 b d bb db ypass pcb vdd
** N=26 EP=9 IP=25 FDC=5
*.SEEDPROM
X1 bb b pcb vdd pfet_06v0_I01   
X2 bb db 3 vdd pfet_06v0_I01   
X4 b d 3 vdd pmos_1p2$$46889004   
X5 b d ypass vss nmos_1p2$$47119404   
X6 bb db ypass vss nmos_1p2$$47119404   
.ENDS
***************************************
.SUBCKT mux821 1 2 3 4 5 6 7 8 9 13 14 15 16 17 18 19 20 21 22 23
+ 24 25 26 27 28 29 30 31 32 33 42 43 44 45 46 47 48
** N=86 EP=37 IP=165 FDC=48
*.SEEDPROM
X0 13 42 1 1 nfet_06v0 L=6e-07 W=1.14e-06 AD=2.964e-13 AS=3.99e-13 PD=2.18e-06 PS=3.11e-06 NRD=0.912281 NRS=1.22807 m=1 nf=2   
X1 16 43 1 1 nfet_06v0 L=6e-07 W=1.14e-06 AD=2.964e-13 AS=3.99e-13 PD=2.18e-06 PS=3.11e-06 NRD=0.912281 NRS=1.22807 m=1 nf=2   
X2 19 44 1 1 nfet_06v0 L=6e-07 W=1.14e-06 AD=2.964e-13 AS=3.99e-13 PD=2.18e-06 PS=3.11e-06 NRD=0.912281 NRS=1.22807 m=1 nf=2   
X3 22 45 1 1 nfet_06v0 L=6e-07 W=1.14e-06 AD=2.964e-13 AS=3.99e-13 PD=2.18e-06 PS=3.11e-06 NRD=0.912281 NRS=1.22807 m=1 nf=2   
X4 25 46 1 1 nfet_06v0 L=6e-07 W=1.14e-06 AD=2.964e-13 AS=3.99e-13 PD=2.18e-06 PS=3.11e-06 NRD=0.912281 NRS=1.22807 m=1 nf=2   
X5 28 47 1 1 nfet_06v0 L=6e-07 W=1.14e-06 AD=2.964e-13 AS=3.99e-13 PD=2.18e-06 PS=3.11e-06 NRD=0.912281 NRS=1.22807 m=1 nf=2   
X6 31 48 1 1 nfet_06v0 L=6e-07 W=1.14e-06 AD=2.964e-13 AS=3.99e-13 PD=2.18e-06 PS=3.11e-06 NRD=0.912281 NRS=1.22807 m=1 nf=2   
X7 2 9 1 1 nfet_06v0 L=6e-07 W=1.14e-06 AD=2.964e-13 AS=3.99e-13 PD=2.18e-06 PS=3.11e-06 NRD=0.912281 NRS=1.22807 m=1 nf=2   
X9 5 3 7 8 pfet_06v0_I01   
X10 5 6 2 8 pfet_06v0_I01   
X12 3 4 2 8 pmos_1p2$$46889004   
X13 3 4 9 1 nmos_1p2$$47119404   
X14 5 6 9 1 nmos_1p2$$47119404   
X15 1 13 15 4 14 6 42 7 8 ypass_gate   
X16 1 16 18 4 17 6 43 7 8 ypass_gate   
X17 1 19 21 4 20 6 44 7 8 ypass_gate   
X18 1 22 24 4 23 6 45 7 8 ypass_gate   
X19 1 25 27 4 26 6 46 7 8 ypass_gate   
X20 1 28 30 4 29 6 47 7 8 ypass_gate   
X21 1 31 33 4 32 6 48 7 8 ypass_gate   
.ENDS
***************************************
.SUBCKT nfet_06v0_I15
** N=4 EP=0 IP=0 FDC=0
*.SEEDPROM
.ENDS
***************************************
.SUBCKT nfet_06v0_I06
** N=4 EP=0 IP=0 FDC=0
*.SEEDPROM
.ENDS
***************************************
.SUBCKT pfet_06v0_I17
** N=4 EP=0 IP=0 FDC=0
*.SEEDPROM
.ENDS
***************************************
.SUBCKT nfet_06v0_I20
** N=4 EP=0 IP=0 FDC=0
*.SEEDPROM
.ENDS
***************************************
.SUBCKT pfet_06v0_I11 1 2 3
** N=3 EP=3 IP=0 FDC=1
X0 2 3 1 1 pfet_06v0 L=6e-07 W=3.42e-06 AD=8.892e-13 AS=1.5048e-12 PD=4.46e-06 PS=8.6e-06 NRD=0.304094 NRS=0.51462 m=1 nf=2   
.ENDS
***************************************
.SUBCKT nfet_06v0_I03
** N=4 EP=0 IP=0 FDC=0
*.SEEDPROM
.ENDS
***************************************
.SUBCKT nmos_1p2$$202596396
** N=4 EP=0 IP=4 FDC=0
*.SEEDPROM
.ENDS
***************************************
.SUBCKT pfet_06v0_I04
** N=4 EP=0 IP=0 FDC=0
*.SEEDPROM
.ENDS
***************************************
.SUBCKT nmos_1p2$$202595372
** N=4 EP=0 IP=4 FDC=0
*.SEEDPROM
.ENDS
***************************************
.SUBCKT pmos_1p2$$202586156
** N=3 EP=0 IP=4 FDC=0
*.SEEDPROM
.ENDS
***************************************
.SUBCKT pfet_06v0_I07
** N=4 EP=0 IP=0 FDC=0
*.SEEDPROM
.ENDS
***************************************
.SUBCKT pmos_1p2$$202587180
** N=4 EP=0 IP=4 FDC=0
*.SEEDPROM
.ENDS
***************************************
.SUBCKT wen_wm1 vss wep 3 4 5 men 7 8 9 10 11 12 13 14 vdd wen GWEN 18 19
** N=43 EP=19 IP=113 FDC=31
X0 10 wen vss vss nfet_06v0 L=6e-07 W=9.6e-07 AD=2.496e-13 AS=4.224e-13 PD=1.48e-06 PS=2.8e-06 NRD=0.270833 NRS=0.458333 m=1 nf=1   
X1 7 men vss vss nfet_06v0 L=6e-07 W=1.37e-06 AD=3.562e-13 AS=6.028e-13 PD=1.89e-06 PS=3.62e-06 NRD=0.189781 NRS=0.321168 m=1 nf=1   
X2 vss GWEN 10 vss nfet_06v0 L=6e-07 W=9.6e-07 AD=4.224e-13 AS=2.496e-13 PD=2.8e-06 PS=1.48e-06 NRD=0.458333 NRS=0.270833 m=1 nf=1   
X3 vss vss 7 vss nfet_06v0 L=6e-07 W=1.37e-06 AD=6.028e-13 AS=3.562e-13 PD=3.62e-06 PS=1.89e-06 NRD=0.321168 NRS=0.189781 m=1 nf=1   
X4 3 10 vss vss nfet_06v0 L=6e-07 W=9.6e-07 AD=4.224e-13 AS=4.224e-13 PD=2.8e-06 PS=2.8e-06 NRD=0.458333 NRS=0.458333 m=1 nf=1   
X5 11 7 vss vss nfet_06v0 L=6e-07 W=9.6e-07 AD=4.224e-13 AS=4.224e-13 PD=2.8e-06 PS=2.8e-06 NRD=0.458333 NRS=0.458333 m=1 nf=1   
X6 4 7 3 vss nfet_06v0 L=6e-07 W=2.27e-06 AD=9.988e-13 AS=9.988e-13 PD=5.42e-06 PS=5.42e-06 NRD=0.193833 NRS=0.193833 m=1 nf=1   
X7 8 5 vss vss nfet_06v0 L=6e-07 W=1.37e-06 AD=6.028e-13 AS=6.028e-13 PD=3.62e-06 PS=3.62e-06 NRD=0.321168 NRS=0.321168 m=1 nf=1   
X8 12 11 4 vss nfet_06v0 L=6e-07 W=9.6e-07 AD=2.496e-13 AS=4.224e-13 PD=1.48e-06 PS=2.8e-06 NRD=0.270833 NRS=0.458333 m=1 nf=1   
X9 vss 14 12 vss nfet_06v0 L=6e-07 W=9.6e-07 AD=4.224e-13 AS=2.496e-13 PD=2.8e-06 PS=1.48e-06 NRD=0.458333 NRS=0.270833 m=1 nf=1   
X10 vss 4 14 vss nfet_06v0 L=6e-07 W=9.6e-07 AD=2.496e-13 AS=4.224e-13 PD=1.48e-06 PS=2.8e-06 NRD=0.270833 NRS=0.458333 m=1 nf=1   
X11 13 14 vss vss nfet_06v0 L=6e-07 W=9.6e-07 AD=4.224e-13 AS=2.496e-13 PD=2.8e-06 PS=1.48e-06 NRD=0.458333 NRS=0.270833 m=1 nf=1   
X12 wep 8 vss vss nfet_06v0 L=6e-07 W=2.4e-06 AD=7.68e-13 AS=7.68e-13 PD=5.12e-06 PS=5.12e-06 NRD=1.2 NRS=1.2 m=1 nf=3   
X13 vss 13 9 vss nfet_06v0 L=6e-07 W=1.37e-06 AD=6.028e-13 AS=6.028e-13 PD=3.62e-06 PS=3.62e-06 NRD=0.321168 NRS=0.321168 m=1 nf=1   
X14 men 9 5 vss nfet_06v0 L=6e-07 W=4.54e-06 AD=1.1804e-12 AS=1.589e-12 PD=5.58e-06 PS=8.21e-06 NRD=0.229075 NRS=0.30837 m=1 nf=2   
X15 vss 13 5 vss nfet_06v0 L=6e-07 W=2.27e-06 AD=9.988e-13 AS=5.902e-13 PD=5.42e-06 PS=2.79e-06 NRD=0.193833 NRS=0.114537 m=1 nf=1   
X16 18 wen vdd vdd pfet_06v0 L=6e-07 W=2.27e-06 AD=5.902e-13 AS=9.988e-13 PD=2.79e-06 PS=5.42e-06 NRD=0.114537 NRS=0.193833 m=1 nf=1   
X17 19 men vdd vdd pfet_06v0 L=6e-07 W=2.27e-06 AD=5.902e-13 AS=9.988e-13 PD=2.79e-06 PS=5.42e-06 NRD=0.114537 NRS=0.193833 m=1 nf=1   
X18 10 GWEN 18 vdd pfet_06v0 L=6e-07 W=2.27e-06 AD=9.988e-13 AS=5.902e-13 PD=5.42e-06 PS=2.79e-06 NRD=0.193833 NRS=0.114537 m=1 nf=1   
X19 7 vss 19 vdd pfet_06v0 L=6e-07 W=2.27e-06 AD=9.988e-13 AS=5.902e-13 PD=5.42e-06 PS=2.79e-06 NRD=0.193833 NRS=0.114537 m=1 nf=1   
X20 3 10 vdd vdd pfet_06v0 L=6e-07 W=2.27e-06 AD=9.988e-13 AS=9.988e-13 PD=5.42e-06 PS=5.42e-06 NRD=0.193833 NRS=0.193833 m=1 nf=1   
X21 11 7 vdd vdd pfet_06v0 L=6e-07 W=2.27e-06 AD=9.988e-13 AS=9.988e-13 PD=5.42e-06 PS=5.42e-06 NRD=0.193833 NRS=0.193833 m=1 nf=1   
X22 4 11 3 vdd pfet_06v0 L=6e-07 W=2.27e-06 AD=1.17084e-12 AS=9.988e-13 PD=4.78598e-06 PS=5.42e-06 NRD=0.22722 NRS=0.193833 m=1 nf=1   
X23 12 7 4 vdd pfet_06v0 L=6e-07 W=9.6e-07 AD=-6.87097e-13 AS=-6.48697e-13 PD=-2.78573e-06 PS=-2.70573e-06 NRD=-0.745548 NRS=-0.703882 m=1 nf=1   
X24 vdd 14 12 vdd pfet_06v0 L=6e-07 W=2.27e-06 AD=9.988e-13 AS=1.14386e-12 PD=5.42e-06 PS=4.72975e-06 NRD=0.193833 NRS=0.221983 m=1 nf=1   
X25 vdd 4 14 vdd pfet_06v0 L=6e-07 W=2.27e-06 AD=5.902e-13 AS=9.988e-13 PD=2.79e-06 PS=5.42e-06 NRD=0.114537 NRS=0.193833 m=1 nf=1   
X26 13 14 vdd vdd pfet_06v0 L=6e-07 W=2.27e-06 AD=9.988e-13 AS=5.902e-13 PD=5.42e-06 PS=2.79e-06 NRD=0.193833 NRS=0.114537 m=1 nf=1   
X27 wep 8 vdd vdd pfet_06v0 L=6e-07 W=6e-06 AD=1.92e-12 AS=1.92e-12 PD=9.92e-06 PS=9.92e-06 NRD=0.48 NRS=0.48 m=1 nf=3   
X28 men 13 5 vdd pfet_06v0 L=6e-07 W=4.54e-06 AD=1.1804e-12 AS=1.9976e-12 PD=5.58e-06 PS=1.084e-05 NRD=0.229075 NRS=0.387665 m=1 nf=2   
X37 vdd 8 5 pfet_06v0_I11   
X38 vdd 9 13 pfet_06v0_I11   
.ENDS
***************************************
.SUBCKT M1_PSUB$$44997676
** N=7 EP=0 IP=0 FDC=0
.ENDS
***************************************
.SUBCKT nfet_06v0_I18
** N=6 EP=0 IP=0 FDC=0
*.SEEDPROM
.ENDS
***************************************
.SUBCKT nfet_06v0_I17 1 2 3 4
** N=4 EP=4 IP=0 FDC=1
X0 2 3 1 4 nfet_06v0 L=6e-07 W=6e-07 AD=2.64e-13 AS=2.64e-13 PD=2.08e-06 PS=2.08e-06 NRD=0.733333 NRS=0.733333 m=1 nf=1   
.ENDS
***************************************
.SUBCKT pfet_06v0_I12
** N=4 EP=0 IP=0 FDC=0
*.SEEDPROM
.ENDS
***************************************
.SUBCKT pmos_1p2$$46281772
** N=5 EP=0 IP=0 FDC=0
*.SEEDPROM
.ENDS
***************************************
.SUBCKT nfet_06v0_I12 1 2 3 4 5
** N=5 EP=5 IP=0 FDC=2
X0 2 4 1 2 nfet_06v0 L=6e-07 W=6e-07 AD=1.56e-13 AS=2.64e-13 PD=1.12e-06 PS=2.08e-06 NRD=0.433333 NRS=0.733333 m=1 nf=1   
X1 3 5 2 2 nfet_06v0 L=6e-07 W=6e-07 AD=2.64e-13 AS=1.56e-13 PD=2.08e-06 PS=1.12e-06 NRD=0.733333 NRS=0.433333 m=1 nf=1   
.ENDS
***************************************
.SUBCKT pfet_06v0_I13 1 2 3 4 5
** N=6 EP=5 IP=0 FDC=2
X0 2 4 1 2 pfet_06v0 L=6e-07 W=1.2e-06 AD=3.12e-13 AS=5.28e-13 PD=1.72e-06 PS=3.28e-06 NRD=0.216667 NRS=0.366667 m=1 nf=1   
X1 3 5 2 2 pfet_06v0 L=6e-07 W=1.2e-06 AD=5.28e-13 AS=3.12e-13 PD=3.28e-06 PS=1.72e-06 NRD=0.366667 NRS=0.216667 m=1 nf=1   
.ENDS
***************************************
.SUBCKT nfet_06v0_I07 1 2 3 4
** N=4 EP=4 IP=0 FDC=1
X0 2 3 1 4 nfet_06v0 L=6e-07 W=1.135e-05 AD=3.3596e-12 AS=3.3596e-12 PD=1.658e-05 PS=1.658e-05 NRD=0.651982 NRS=0.651982 m=1 nf=5   
.ENDS
***************************************
.SUBCKT pmos_1p2$$46285868
** N=4 EP=0 IP=4 FDC=0
*.SEEDPROM
.ENDS
***************************************
.SUBCKT pfet_06v0_I05
** N=6 EP=0 IP=0 FDC=0
*.SEEDPROM
.ENDS
***************************************
.SUBCKT pmos_1p2$$46286892
** N=5 EP=0 IP=6 FDC=0
*.SEEDPROM
.ENDS
***************************************
.SUBCKT sacntl_2 vss 2 pcb 4 5 6 7 8 9 10 11 se 19 20 21 22 23 24 25 26
+ 27 vdd men
** N=54 EP=23 IP=83 FDC=39
X0 2 11 vss vss nfet_06v0 L=6e-07 W=2.28e-06 AD=5.928e-13 AS=1.0032e-12 PD=3.32e-06 PS=6.32e-06 NRD=0.45614 NRS=0.77193 m=1 nf=2   
X1 4 men vss vss nfet_06v0 L=6e-07 W=5.7e-06 AD=1.6872e-12 AS=1.6872e-12 PD=9.8e-06 PS=9.8e-06 NRD=1.29825 NRS=1.29825 m=1 nf=5   
X2 vss 10 pcb vss nfet_06v0 L=6e-07 W=1.589e-05 AD=4.54e-12 AS=4.54e-12 PD=2.216e-05 PS=2.216e-05 NRD=0.881057 NRS=0.881057 m=1 nf=7   
X3 5 4 vss vss nfet_06v0 L=6e-07 W=2.86e-06 AD=7.436e-13 AS=1.2584e-12 PD=3.38e-06 PS=6.6e-06 NRD=0.0909091 NRS=0.153846 m=1 nf=1   
X4 6 11 5 vss nfet_06v0 L=6e-07 W=2.86e-06 AD=0 AS=0 PD=0 PS=0 NRD=0 NRS=0 m=1 nf=1   
X5 7 27 6 vss nfet_06v0 L=6e-07 W=2.86e-06 AD=0 AS=0 PD=0 PS=0 NRD=0 NRS=0 m=1 nf=1   
X6 8 27 7 vss nfet_06v0 L=6e-07 W=2.86e-06 AD=0 AS=0 PD=0 PS=0 NRD=0 NRS=0 m=1 nf=1   
X7 9 11 8 vss nfet_06v0 L=6e-07 W=2.86e-06 AD=0 AS=0 PD=0 PS=0 NRD=0 NRS=0 m=1 nf=1   
X8 vss 4 9 vss nfet_06v0 L=6e-07 W=2.86e-06 AD=1.2584e-12 AS=7.436e-13 PD=6.6e-06 PS=3.38e-06 NRD=0.153846 NRS=0.0909091 m=1 nf=1   
X9 10 7 vss vss nfet_06v0 L=6e-07 W=5.22e-06 AD=1.3572e-12 AS=2.2968e-12 PD=6.26e-06 PS=1.22e-05 NRD=0.199234 NRS=0.337165 m=1 nf=2   
X10 11 20 vss vss nfet_06v0 L=6e-07 W=1.44e-06 AD=6.336e-13 AS=6.336e-13 PD=3.76e-06 PS=3.76e-06 NRD=0.305556 NRS=0.305556 m=1 nf=1   
X11 se 27 vss vss nfet_06v0 L=6e-07 W=9.08e-06 AD=2.3608e-12 AS=3.178e-12 PD=1.116e-05 PS=1.642e-05 NRD=0.45815 NRS=0.61674 m=1 nf=4   
X12 2 11 vdd vdd pfet_06v0 L=6e-07 W=6.82e-06 AD=1.7732e-12 AS=3.0008e-12 PD=7.86e-06 PS=1.54e-05 NRD=0.152493 NRS=0.258065 m=1 nf=2   
X13 4 men vdd vdd pfet_06v0 L=6e-07 W=1.135e-05 AD=3.3596e-12 AS=3.3596e-12 PD=1.658e-05 PS=1.658e-05 NRD=0.651982 NRS=0.651982 m=1 nf=5   
X14 27 2 vdd vdd pfet_06v0 L=6e-07 W=6.81e-06 AD=1.7706e-12 AS=2.1792e-12 PD=8.37e-06 PS=1.1e-05 NRD=0.343612 NRS=0.422907 m=1 nf=3   
X15 vdd 4 27 vdd pfet_06v0 L=6e-07 W=2.27e-06 AD=9.988e-13 AS=5.902e-13 PD=5.42e-06 PS=2.79e-06 NRD=0.193833 NRS=0.114537 m=1 nf=1   
X16 pcb 10 vdd vdd pfet_06v0 L=6e-07 W=4.09e-05 AD=1.0634e-11 AS=1.21023e-11 PD=4.61e-05 PS=4.6818e-05 NRD=0.635697 NRS=0.723472 m=1 nf=10   
X17 7 27 vdd vdd pfet_06v0 L=6e-07 W=4.54e-06 AD=1.1804e-12 AS=1.9976e-12 PD=5.06e-06 PS=9.96e-06 NRD=0.0572687 NRS=0.0969163 m=1 nf=1   
X18 vdd 11 7 vdd pfet_06v0 L=6e-07 W=4.54e-06 AD=0 AS=0 PD=0 PS=0 NRD=0 NRS=0 m=1 nf=1   
X19 7 4 vdd vdd pfet_06v0 L=6e-07 W=4.54e-06 AD=1.9976e-12 AS=1.1804e-12 PD=9.96e-06 PS=5.06e-06 NRD=0.0969163 NRS=0.0572687 m=1 nf=1   
X20 vdd 25 19 vdd pfet_06v0 L=6e-07 W=1.2e-06 AD=5.28e-13 AS=5.28e-13 PD=3.28e-06 PS=3.28e-06 NRD=0.366667 NRS=0.366667 m=1 nf=1   
X21 10 7 vdd vdd pfet_06v0 L=6e-07 W=1.362e-05 AD=4.3584e-12 AS=4.3584e-12 PD=2.008e-05 PS=2.008e-05 NRD=0.211454 NRS=0.211454 m=1 nf=3   
X22 se 27 vdd vdd pfet_06v0 L=6e-07 W=2.72e-05 AD=7.072e-12 AS=8.0512e-12 PD=3.24e-05 PS=3.856e-05 NRD=0.955882 NRS=1.08824 m=1 nf=10   
X23 vdd 11 20 pfet_06v0_I11   
X27 19 vss 25 vss nfet_06v0_I17   
X31 20 vss 21 4 vss nfet_06v0_I12   
X32 22 vss 23 21 22 nfet_06v0_I12   
X33 24 vss 25 23 24 nfet_06v0_I12   
X34 20 vdd 21 4 vss pfet_06v0_I13   
X35 22 vdd 23 21 22 pfet_06v0_I13   
X36 24 vdd 25 23 24 pfet_06v0_I13   
X37 vss 26 2 vss nfet_06v0_I07   
X38 27 26 4 vss nfet_06v0_I07   
.ENDS
***************************************
.SUBCKT nfet_06v0_I02
** N=3 EP=0 IP=0 FDC=0
*.SEEDPROM
.ENDS
***************************************
.SUBCKT pfet_06v0_I02
** N=3 EP=0 IP=0 FDC=0
*.SEEDPROM
.ENDS
***************************************
.SUBCKT pfet_06v0_I14
** N=4 EP=0 IP=0 FDC=0
*.SEEDPROM
.ENDS
***************************************
.SUBCKT nfet_06v0_I04
** N=4 EP=0 IP=0 FDC=0
*.SEEDPROM
.ENDS
***************************************
.SUBCKT outbuf_oe q vss 3 4 5 15 16 17 18 vdd GWE se qp qn 24
** N=66 EP=15 IP=48 FDC=18
X0 vss 5 q vss nfet_06v0 L=6e-07 W=1.272e-05 AD=3.3072e-12 AS=4.0704e-12 PD=1.584e-05 PS=2.08e-05 NRD=0.735849 NRS=0.90566 m=1 nf=6   
X1 3 GWE vss vss nfet_06v0 L=6e-07 W=1.6e-06 AD=7.04e-13 AS=7.04e-13 PD=4.08e-06 PS=4.08e-06 NRD=0.275 NRS=0.275 m=1 nf=1   
X2 17 3 vss vss nfet_06v0 L=6e-07 W=2.2e-06 AD=9.68e-13 AS=9.68e-13 PD=5.28e-06 PS=5.28e-06 NRD=0.2 NRS=0.2 m=1 nf=1   
X3 vss 16 4 vss nfet_06v0 L=6e-07 W=9.6e-07 AD=4.224e-13 AS=4.224e-13 PD=2.8e-06 PS=2.8e-06 NRD=0.458333 NRS=0.458333 m=1 nf=1   
X4 5 15 4 vss nfet_06v0 L=6e-07 W=6.81e-06 AD=2.1792e-12 AS=2.1792e-12 PD=1.1e-05 PS=1.1e-05 NRD=0.422907 NRS=0.422907 m=1 nf=3   
X5 vss se 15 vss nfet_06v0 L=6e-07 W=9.6e-07 AD=4.224e-13 AS=4.224e-13 PD=2.8e-06 PS=2.8e-06 NRD=0.458333 NRS=0.458333 m=1 nf=1   
X6 5 qn 18 vss nfet_06v0 L=6e-07 W=5.68e-06 AD=1.4768e-12 AS=1.988e-12 PD=6.72e-06 PS=9.92e-06 NRD=0.183099 NRS=0.246479 m=1 nf=2   
X7 vss 3 18 vss nfet_06v0 L=6e-07 W=5.68e-06 AD=1.4768e-12 AS=1.988e-12 PD=6.72e-06 PS=9.92e-06 NRD=0.183099 NRS=0.246479 m=1 nf=2   
X8 vdd 5 q vdd pfet_06v0 L=6e-07 W=2.268e-05 AD=5.8968e-12 AS=7.2576e-12 PD=2.58e-05 PS=3.408e-05 NRD=0.412698 NRS=0.507937 m=1 nf=6   
X9 3 GWE vdd vdd pfet_06v0 L=6e-07 W=4e-06 AD=1.76e-12 AS=1.76e-12 PD=8.88e-06 PS=8.88e-06 NRD=0.11 NRS=0.11 m=1 nf=1   
X10 17 3 vdd vdd pfet_06v0 L=6e-07 W=4.5e-06 AD=1.98e-12 AS=1.98e-12 PD=9.88e-06 PS=9.88e-06 NRD=0.0977778 NRS=0.0977778 m=1 nf=1   
X11 4 16 vdd vdd pfet_06v0 L=6e-07 W=2.28e-06 AD=5.928e-13 AS=1.24202e-12 PD=3.32e-06 PS=5.60564e-06 NRD=0.45614 NRS=0.955691 m=1 nf=2   
X12 5 se 4 vdd pfet_06v0 L=6e-07 W=6.81e-06 AD=2.1792e-12 AS=2.1792e-12 PD=1.1e-05 PS=1.1e-05 NRD=0.422907 NRS=0.422907 m=1 nf=3   
X13 16 5 vdd vdd pfet_06v0 L=6e-07 W=1.2e-06 AD=5.28e-13 AS=7.79385e-13 PD=3.28e-06 PS=2.57436e-06 NRD=0.366667 NRS=0.541239 m=1 nf=1   
X14 vdd se 15 vdd pfet_06v0 L=6e-07 W=2.27e-06 AD=9.988e-13 AS=9.988e-13 PD=5.42e-06 PS=5.42e-06 NRD=0.193833 NRS=0.193833 m=1 nf=1   
X15 5 qp 24 vdd pfet_06v0 L=6e-07 W=1.134e-05 AD=2.9484e-12 AS=3.969e-12 PD=1.238e-05 PS=1.841e-05 NRD=0.0917108 NRS=0.123457 m=1 nf=2   
X16 vdd 17 24 vdd pfet_06v0 L=6e-07 W=1.134e-05 AD=2.9484e-12 AS=3.969e-12 PD=1.238e-05 PS=1.841e-05 NRD=0.0917108 NRS=0.123457 m=1 nf=2   
X20 vss 16 5 vss nfet_06v0_I17   
.ENDS
***************************************
.SUBCKT M1_NWELL_I01
** N=4 EP=0 IP=0 FDC=0
.ENDS
***************************************
.SUBCKT nfet_06v0_I11 1 2 3 4 5 6
** N=6 EP=6 IP=0 FDC=2
X0 2 4 1 6 nfet_06v0 L=6e-07 W=9.6e-07 AD=2.496e-13 AS=4.224e-13 PD=1.48e-06 PS=2.8e-06 NRD=0.270833 NRS=0.458333 m=1 nf=1   
X1 3 5 2 6 nfet_06v0 L=6e-07 W=9.6e-07 AD=4.224e-13 AS=2.496e-13 PD=2.8e-06 PS=1.48e-06 NRD=0.458333 NRS=0.270833 m=1 nf=1   
.ENDS
***************************************
.SUBCKT nmos_1p2$$46883884 1 2 3 4
** N=4 EP=4 IP=0 FDC=1
X0 2 3 1 4 nfet_06v0 L=6e-07 W=1.134e-05 AD=4.9896e-12 AS=4.9896e-12 PD=2.356e-05 PS=2.356e-05 NRD=0.0388007 NRS=0.0388007 m=1 nf=1   
.ENDS
***************************************
.SUBCKT nmos_1p2$$46563372 1 2 3 4
** N=4 EP=4 IP=4 FDC=1
X0 2 3 1 4 nfet_06v0 L=6e-07 W=9.6e-07 AD=4.224e-13 AS=4.224e-13 PD=2.8e-06 PS=2.8e-06 NRD=0.458333 NRS=0.458333 m=1 nf=1   
.ENDS
***************************************
.SUBCKT pfet_06v0_I18 1 2 3 4 5 6
** N=6 EP=6 IP=0 FDC=2
X0 2 4 1 6 pfet_06v0 L=6e-07 W=9.6e-07 AD=2.496e-13 AS=4.224e-13 PD=1.48e-06 PS=2.8e-06 NRD=0.270833 NRS=0.458333 m=1 nf=1   
X1 3 5 2 6 pfet_06v0 L=6e-07 W=9.6e-07 AD=4.224e-13 AS=2.496e-13 PD=2.8e-06 PS=1.48e-06 NRD=0.458333 NRS=0.270833 m=1 nf=1   
.ENDS
***************************************
.SUBCKT pmos_1p2$$46273580 1 2 3
** N=3 EP=3 IP=3 FDC=1
X0 2 3 1 1 pfet_06v0 L=6e-07 W=2.28e-06 AD=5.928e-13 AS=1.0032e-12 PD=3.32e-06 PS=6.32e-06 NRD=0.45614 NRS=0.77193 m=1 nf=2   
.ENDS
***************************************
.SUBCKT pmos_1p2$$46887980 1 2 3
** N=3 EP=3 IP=0 FDC=1
X0 2 3 1 1 pfet_06v0 L=6e-07 W=1.361e-05 AD=5.9884e-12 AS=5.9884e-12 PD=2.81e-05 PS=2.81e-05 NRD=0.0323292 NRS=0.0323292 m=1 nf=1   
.ENDS
***************************************
.SUBCKT din vss 2 3 4 5 6 7 8 d db 11 12 vdd datain men wep
** N=69 EP=16 IP=73 FDC=24
X0 2 4 vss vss nfet_06v0 L=6e-07 W=1.361e-05 AD=5.9884e-12 AS=5.9884e-12 PD=2.81e-05 PS=2.81e-05 NRD=0.0323292 NRS=0.0323292 m=1 nf=1   
X1 3 wep vss vss nfet_06v0 L=6e-07 W=1.14e-06 AD=7.866e-13 AS=7.923e-13 PD=3.66e-06 PS=3.67e-06 NRD=0.605263 NRS=0.609649 m=1 nf=1   
X2 vss 7 4 vss nfet_06v0 L=6e-07 W=2.27e-06 AD=9.988e-13 AS=9.988e-13 PD=5.42e-06 PS=5.42e-06 NRD=0.193833 NRS=0.193833 m=1 nf=1   
X3 3 wep vdd vdd pfet_06v0 L=6e-07 W=2.97e-06 AD=1.13602e-12 AS=1.7523e-12 PD=4.5e-06 PS=8.3e-06 NRD=0.515152 NRS=0.794613 m=1 nf=2   
X4 vdd 2 11 vdd pfet_06v0 L=6e-07 W=1.134e-05 AD=4.9896e-12 AS=4.9896e-12 PD=2.356e-05 PS=2.356e-05 NRD=0.0388007 NRS=0.0388007 m=1 nf=1   
X5 4 vdd 7 vdd pfet_06v0_I01   
X6 d 2 3 vdd pmos_1p2$$46889004   
X7 db 11 3 vdd pmos_1p2$$46889004   
X10 5 vss 6 datain 5 vss nfet_06v0_I11   
X11 6 7 8 12 men vss nfet_06v0_I11   
X12 d 2 wep vss nmos_1p2$$46883884   
X13 db 11 wep vss nmos_1p2$$46883884   
X14 11 vss 2 vss nmos_1p2$$46883884   
X15 vss 12 men vss nmos_1p2$$46563372   
X16 vss 8 4 vss nmos_1p2$$46563372   
X17 5 vdd 6 datain 5 vdd pfet_06v0_I18   
X18 6 7 8 men 12 vdd pfet_06v0_I18   
X19 vdd 12 men pmos_1p2$$46273580   
X20 vdd 8 4 pmos_1p2$$46273580   
X21 vdd 2 4 pmos_1p2$$46887980   
.ENDS
***************************************
.SUBCKT nmos_1p2$$46553132
** N=3 EP=0 IP=0 FDC=0
*.SEEDPROM
.ENDS
***************************************
.SUBCKT pmos_1p2$$46897196 1 2 3 4
** N=4 EP=4 IP=4 FDC=1